test conflict...
shajsaskjadn d aa1222222222222222222
conflict2
1+2
new line...
